Circuit: * C:\projects\lightning\kicad\stmsplat1\STM-SPLAT1\ltspice\lightningfilter.asc

Instance "m:u1:i64:5": Width narrower than recommended for a level 2 MOSFET.
Instance "m:u1:i64:6": Width narrower than recommended for a level 2 MOSFET.
Direct Newton iteration failed to find .op point.  (Use ".option noopiter" to skip.)
Starting Gmin stepping
Increasing initial diagonal Gmin to 100
Increasing initial diagonal Gmin to 1000
Gmin = 1000
Gmin = 107.374
Gmin = 11.5292
Gmin = 1.23794
Gmin = 0.132923
Gmin = 0.0142725
Gmin = 0.0015325
vernier = 0.5
vernier = 0.25
vernier = 0.125
Gmin = 0.000994589
vernier = 0.0625
vernier = 0.03125
vernier = 0.015625
vernier = 0.0078125
Gmin = 0.00100011
vernier = 0.00390625
vernier = 0.00195313
vernier = 0.000976563
vernier = 0.000488281
Gmin = 0
Gmin = 0
Gmin stepping failed

Starting source stepping with srcstepmethod=0
Source Step = 3.0303%
Source Step = 33.3333%
Source Step = 37.6894%
Source Step = 39.5833%
Source Step = 41.4773%
Source Step = 43.3712%
Source Step = 45.2652%
vernier = 0.09375
Source Step = 47.7273%
Source Step = 50.5682%
Source Step = 53.4091%
Source Step = 56.25%
Source Step = 59.0909%
vernier = 0.140625
Source Step = 62.642%
Source Step = 66.9034%
Source Step = 71.1648%
Source Step = 75.4261%
Source Step = 79.6875%
vernier = 0.210938
Source Step = 84.8011%
Source Step = 91.1932%
Source Step = 97.5852%
Source stepping succeeded in finding the operating point.

Ignoring empty pin current: Ix(i21:1)
Ignoring empty pin current: Ix(i21:4)
Ignoring empty pin current: Ix(i21:8)
Ignoring empty pin current: Ix(i21:2)
Ignoring empty pin current: Ix(i24:1)
Ignoring empty pin current: Ix(i24:4)
Ignoring empty pin current: Ix(i24:8)
Ignoring empty pin current: Ix(i24:2)
Ignoring empty pin current: Ix(i23:1)
Ignoring empty pin current: Ix(i23:4)
Ignoring empty pin current: Ix(i23:8)
Ignoring empty pin current: Ix(i23:2)
Ignoring empty pin current: Ix(i22:1)
Ignoring empty pin current: Ix(i22:4)
Ignoring empty pin current: Ix(i22:8)
Ignoring empty pin current: Ix(i22:2)
Ignoring empty pin current: Ix(i20:1)
Ignoring empty pin current: Ix(i20:2)
Ignoring empty pin current: Ix(i20:3)
Ignoring empty pin current: Ix(i20:4)
Ignoring empty pin current: Ix(i20:8)
Ignoring empty pin current: Ix(i20:5)
Ignoring empty pin current: Ix(i18:1)
Ignoring empty pin current: Ix(i18:2)
Ignoring empty pin current: Ix(i18:3)
Ignoring empty pin current: Ix(i18:4)
Ignoring empty pin current: Ix(i18:8)
Ignoring empty pin current: Ix(i18:5)
Ignoring empty pin current: Ix(i19:1)
Ignoring empty pin current: Ix(i19:2)
Ignoring empty pin current: Ix(i19:3)
Ignoring empty pin current: Ix(i19:4)
Ignoring empty pin current: Ix(i19:8)
Ignoring empty pin current: Ix(i19:5)
Ignoring empty pin current: Ix(i17:1)
Ignoring empty pin current: Ix(i17:2)
Ignoring empty pin current: Ix(i17:4)
Ignoring empty pin current: Ix(i17:8)
Ignoring empty pin current: Ix(i17:3)
Ignoring empty pin current: Ix(i16:1)
Ignoring empty pin current: Ix(i16:2)
Ignoring empty pin current: Ix(i16:4)
Ignoring empty pin current: Ix(i16:8)
Ignoring empty pin current: Ix(i16:3)
Ignoring empty pin current: Ix(i15:1)
Ignoring empty pin current: Ix(i15:2)
Ignoring empty pin current: Ix(i15:4)
Ignoring empty pin current: Ix(i15:8)
Ignoring empty pin current: Ix(i15:3)
Ignoring empty pin current: Ix(i14:1)
Ignoring empty pin current: Ix(i14:2)
Ignoring empty pin current: Ix(i14:4)
Ignoring empty pin current: Ix(i14:8)
Ignoring empty pin current: Ix(i14:3)
Ignoring empty pin current: Ix(i13:1)
Ignoring empty pin current: Ix(i13:2)
Ignoring empty pin current: Ix(i13:4)
Ignoring empty pin current: Ix(i13:8)
Ignoring empty pin current: Ix(i13:3)
Ignoring empty pin current: Ix(i64:1)
Ignoring empty pin current: Ix(i64:2)
Ignoring empty pin current: Ix(i64:11)
Ignoring empty pin current: Ix(i64:12)
Ignoring empty pin current: Ix(i64:25)
Ignoring empty pin current: Ix(i67:1)
Ignoring empty pin current: Ix(i67:2)
Ignoring empty pin current: Ix(i67:3)
Ignoring empty pin current: Ix(i66:1)
Ignoring empty pin current: Ix(i66:2)
Ignoring empty pin current: Ix(i66:3)
Ignoring empty pin current: Ix(i65:1)
Ignoring empty pin current: Ix(i65:2)
Ignoring empty pin current: Ix(i65:3)
Ignoring empty pin current: Ix(u1:g0)
Ignoring empty pin current: Ix(u1:g1)
Ignoring empty pin current: Ix(u1:g2)
Ignoring empty pin current: Ix(i21:1)
Ignoring empty pin current: Ix(i21:4)
Ignoring empty pin current: Ix(i21:8)
Ignoring empty pin current: Ix(i21:2)
Ignoring empty pin current: Ix(i24:1)
Ignoring empty pin current: Ix(i24:4)
Ignoring empty pin current: Ix(i24:8)
Ignoring empty pin current: Ix(i24:2)
Ignoring empty pin current: Ix(i23:1)
Ignoring empty pin current: Ix(i23:4)
Ignoring empty pin current: Ix(i23:8)
Ignoring empty pin current: Ix(i23:2)
Ignoring empty pin current: Ix(i22:1)
Ignoring empty pin current: Ix(i22:4)
Ignoring empty pin current: Ix(i22:8)
Ignoring empty pin current: Ix(i22:2)
Ignoring empty pin current: Ix(i20:1)
Ignoring empty pin current: Ix(i20:2)
Ignoring empty pin current: Ix(i20:3)
Ignoring empty pin current: Ix(i20:4)
Ignoring empty pin current: Ix(i20:8)
Ignoring empty pin current: Ix(i20:5)
Ignoring empty pin current: Ix(i18:1)
Ignoring empty pin current: Ix(i18:2)
Ignoring empty pin current: Ix(i18:3)
Ignoring empty pin current: Ix(i18:4)
Ignoring empty pin current: Ix(i18:8)
Ignoring empty pin current: Ix(i18:5)
Ignoring empty pin current: Ix(i19:1)
Ignoring empty pin current: Ix(i19:2)
Ignoring empty pin current: Ix(i19:3)
Ignoring empty pin current: Ix(i19:4)
Ignoring empty pin current: Ix(i19:8)
Ignoring empty pin current: Ix(i19:5)
Ignoring empty pin current: Ix(i17:1)
Ignoring empty pin current: Ix(i17:2)
Ignoring empty pin current: Ix(i17:4)
Ignoring empty pin current: Ix(i17:8)
Ignoring empty pin current: Ix(i17:3)
Ignoring empty pin current: Ix(i16:1)
Ignoring empty pin current: Ix(i16:2)
Ignoring empty pin current: Ix(i16:4)
Ignoring empty pin current: Ix(i16:8)
Ignoring empty pin current: Ix(i16:3)
Ignoring empty pin current: Ix(i15:1)
Ignoring empty pin current: Ix(i15:2)
Ignoring empty pin current: Ix(i15:4)
Ignoring empty pin current: Ix(i15:8)
Ignoring empty pin current: Ix(i15:3)
Ignoring empty pin current: Ix(i14:1)
Ignoring empty pin current: Ix(i14:2)
Ignoring empty pin current: Ix(i14:4)
Ignoring empty pin current: Ix(i14:8)
Ignoring empty pin current: Ix(i14:3)
Ignoring empty pin current: Ix(i13:1)
Ignoring empty pin current: Ix(i13:2)
Ignoring empty pin current: Ix(i13:4)
Ignoring empty pin current: Ix(i13:8)
Ignoring empty pin current: Ix(i13:3)
Ignoring empty pin current: Ix(i64:1)
Ignoring empty pin current: Ix(i64:2)
Ignoring empty pin current: Ix(i64:11)
Ignoring empty pin current: Ix(i64:12)
Ignoring empty pin current: Ix(i64:25)
Ignoring empty pin current: Ix(i67:1)
Ignoring empty pin current: Ix(i67:2)
Ignoring empty pin current: Ix(i67:3)
Ignoring empty pin current: Ix(i66:1)
Ignoring empty pin current: Ix(i66:2)
Ignoring empty pin current: Ix(i66:3)
Ignoring empty pin current: Ix(i65:1)
Ignoring empty pin current: Ix(i65:2)
Ignoring empty pin current: Ix(i65:3)
Ignoring empty pin current: Ix(u1:g0)
Ignoring empty pin current: Ix(u1:g1)
Ignoring empty pin current: Ix(u1:g2)

Date: Wed Nov 21 15:33:22 2018
Total elapsed time: 1.187 seconds.

tnom = 27
temp = 27
method = modified trap
totiter = 10033
traniter = 7009
tranpoints = 3345
accept = 3257
rejected = 88
matrix size = 107
fillins = 129
solver = Normal
Thread vector: 23.4/17.0[5] 14.6/5.1[5] 3.6/2.0[4] 0.6/1.9[1]  2592/500
Matrix Compiler1: 12.91 KB object code size  8.4/5.1/[1.7]
Matrix Compiler2: 12.58 KB object code size  4.2/6.2/[1.1]

